Uv/Vis Spectrum: Azobenzene
Formula: C12H10N2
CAS: 103-33-3
Instrument: n.i.g.
Origin: INSTITUTE OF ENERGY PROBLEMS OF CHEMICAL PHYSICS, RAS
Wavelength (nm)	Logarithm epsilon
229.256	4.03804
229.754	4.03892
230.422	4.0388
234.647	4.02956
234.826	4.02078
235.17	4.01732
235.389	4.01267
237.64	3.97854
238.48	3.93378
239.624	3.88471
239.752	3.90321
240.269	3.8812
240.528	3.87023
241.359	3.8174
241.742	3.83141
242.2	3.7937
242.223	3.7971
242.419	3.7978
242.626	3.7793
242.889	3.74818
243.555	3.70805
244.856	3.67282
244.92	3.67312
245.006	3.67353
245.936	3.63556
245.998	3.63257
246.062	3.62381
246.128	3.62873
246.205	3.62792
247.451	3.57768
247.589	3.59781
250.033	3.54518
252.079	3.52127
252.225	3.52124
253.422	3.51472
256.118	3.49173
256.778	3.49518
256.813	3.50027
257.49	3.48753
257.793	3.48318
258.002	3.47895
258.206	3.4874
259.439	3.48597
259.932	3.48151
261.035	3.47962
261.887	3.48044
262.169	3.4867
265.162	3.51461
266.515	3.54152
266.87	3.53959
267.179	3.56155
269.085	3.58847
269.191	3.59477
270.981	3.6138
271.103	3.6315
271.451	3.63314
271.663	3.6365
271.699	3.64159
272.736	3.6465
273.164	3.66487
275.566	3.69431
275.853	3.71028
276.916	3.71883
277.304	3.72629
277.532	3.73183
277.555	3.73522
277.829	3.74027
278.147	3.74272
279.113	3.77192
279.366	3.78297
279.63	3.78656
281.493	3.82077
281.729	3.82753
283.552	3.84923
283.707	3.87177
285.904	3.89713
286.22	3.90338
288.549	3.92918
288.705	3.95173
289.935	3.98452
290.658	3.94385
291.03	3.98877
291.168	3.98309
291.236	3.99303
291.31	3.96898
294.088	4.01146
294.723	4.03417
297.628	4.06722
299.911	4.10025
300.023	4.09077
300.183	4.10505
300.334	4.10576
300.538	4.1079
303.336	4.13241
304.144	4.13858
304.346	4.14687
305.972	4.15411
306.018	4.16082
307.89	4.17578
308.092	4.18407
311.5	4.1999
312.053	4.20418
312.388	4.21795
313.463	4.20757
316.51	4.2267
316.649	4.22593
316.845	4.21959
318.478	4.22732
319.403	4.22982
320.427	4.23303
321.916	4.23398
322.24	4.23221
323.063	4.23191
326.811	4.22291
328.478	4.21509
328.634	4.20998
329.577	4.2149
332.054	4.19285
332.059	4.19359
332.693	4.18844
333.092	4.18418
335.696	4.14559
335.87	4.17081
336.79	4.15346
338.01	4.12067
339.836	4.09436
340.387	4.07023
340.5	4.06098
340.713	4.05537
340.968	4.0435
341.037	4.05361
341.989	4.01004
342.087	3.99984
342.387	3.965
342.569	3.96401
342.721	3.97878
342.841	3.95472
342.893	3.96224
343.015	3.97994
343.298	3.88231
343.38	3.89418
343.965	3.83339
344.12	3.85594
344.315	3.80791
345.044	3.77493
345.135	3.75355
345.225	3.75264
345.405	3.75108
346.346	3.72088
346.901	3.68381
347.084	3.68281
347.235	3.69759
347.34	3.67111
347.408	3.68105
347.53	3.69875
348.109	3.64402
348.936	3.58367
349.003	3.60242
349.048	3.59992
349.523	3.55783
350.194	3.50966
350.619	3.46594
350.66	3.46297
350.982	3.47626
351.28	3.47991
351.538	3.42031
351.56	3.42347
351.721	3.41932
351.92	3.42681
352.027	3.41496
352.115	3.42774
352.149	3.43266
352.733	3.3786
353.868	3.32134
354.023	3.34389
354.418	3.29721
354.543	3.28068
354.93	3.26046
355.073	3.2466
355.347	3.23806
355.732	3.20351
355.975	3.211
356.171	3.19081
356.982	3.16282
357.051	3.17293
357.115	3.17323
357.298	3.1741
357.895	3.115
357.918	3.1184
358.538	3.11319
358.803	3.10805
358.838	3.11314
358.902	3.12236
359.458	3.05743
359.615	3.08023
359.65	3.08532
359.953	3.07587
360.036	3.06493
360.105	3.07504
360.256	2.99296
360.322	3.03713
360.44	3.02862
360.625	3.01183
361.199	2.94935
362.308	2.89526
362.786	2.85365
362.868	2.85655
362.971	2.85944
363.764	2.74593
363.835	2.81202
363.883	2.79786
364.086	2.74418
364.409	2.74249
364.755	2.70934
364.81	2.70376
364.877	2.72704
364.941	2.72734
366.08	2.65206
366.238	2.67485
367.04	2.61991
367.142	2.61188
367.795	2.57479
367.882	2.57849
367.992	2.58229
368.767	2.53554
368.802	2.54063
369.187	2.52017
369.274	2.53278
369.694	2.48973
369.773	2.49222
369.986	2.49745
370.425	2.48475
370.458	2.44591
370.578	2.45129
370.75	2.42788
370.914	2.42598
371.427	2.40155
371.543	2.3974
371.65	2.3782
372.17	2.35626
372.383	2.36455
372.592	2.29986
372.766	2.32508
373.908	2.27585
375.808	2.24662
375.925	2.24246
376.858	2.23095
376.9	2.22799
378.127	2.23576
380.503	2.22004
380.717	2.21637
382.446	2.21557
383.205	2.21666
383.694	2.21826
384.241	2.22836
384.944	2.23316
385.477	2.23907
385.891	2.24579
386.139	2.24696
387.621	2.27268
389.395	2.28935
389.463	2.29929
389.626	2.30006
389.902	2.28659
390.089	2.30476
390.306	2.31055
390.553	2.31172
392.901	2.33996
393.19	2.34718
393.545	2.35052
393.844	2.3592
395.47	2.38003
395.517	2.38682
395.861	2.38829
396.553	2.39149
396.61	2.39981
398.945	2.42153
400.456	2.45149
400.782	2.46406
401.111	2.46813
401.424	2.47397
403.748	2.49897
404.03	2.50523
404.389	2.50857
404.666	2.51223
406.934	2.53118
407.668	2.56139
410.423	2.57935
410.682	2.58223
411.033	2.58483
411.103	2.59501
411.253	2.59572
413.57	2.61795
413.776	2.62221
414.145	2.64108
417.112	2.66199
417.386	2.66534
417.593	2.6696
417.84	2.67077
421.488	2.69367
421.814	2.69733
422.498	2.7015
422.506	2.70271
426.478	2.72386
426.756	2.72769
426.973	2.73348
428.471	2.73588
428.622	2.73659
431.963	2.75493
433.333	2.76148
433.403	2.77166
437.026	2.77716
438.612	2.77826
440.904	2.77786
441.41	2.77509
443.377	2.77572
444.445	2.77633
444.628	2.77719
445.373	2.77439
446.342	2.77422
450.28	2.75829
450.391	2.75335
450.908	2.75204
451.055	2.74772
451.286	2.7447
454.012	2.73765
455.478	2.72841
459.159	2.70962
459.453	2.70381
462.593	2.68563
462.718	2.6691
463.068	2.66638
463.299	2.66342
465.27	2.63709
465.517	2.63826
466.634	2.63376
467.181	2.62995
468.499	2.60617
469.724	2.60352
470.874	2.59726
473.785	2.58241
473.948	2.58318
474.129	2.57022
474.329	2.58498
474.43	2.56507
475.972	2.53905
476.202	2.5378
476.812	2.5292
479.697	2.50392
482.742	2.474
483.189	2.46955
483.376	2.46199
485.284	2.4474
487.836	2.42243
488.303	2.42082
488.785	2.41442
488.839	2.39652
490.875	2.37812
490.997	2.3747
491.628	2.37126
491.918	2.36968
492.976	2.34279
493.142	2.34398
493.329	2.34523
493.832	2.32127
494.339	2.31852
496.059	2.30487
496.358	2.29971
496.624	2.28947
496.683	2.29795
