Uv/Vis Spectrum: Pentacene
Formula: C22H14
CAS: 135-48-8
Melting point: > 300 dec
Instrument: Zeiss M4Q
Origin: INSTITUTE OF ENERGY PROBLEMS OF CHEMICAL PHYSICS, RAS
Wavelength (nm)	Logarithm epsilon
285.24	4.669
285.6	4.671
285.95	4.675
286.31	4.677
286.67	4.682
287.02	4.684
287.38	4.688
288.46	4.707
289.55	4.738
290.65	4.755
291.76	4.757
292.88	4.742
294	4.725
295.13	4.712
296.27	4.703
297.42	4.705
298.58	4.755
299.75	4.821
300.98	4.935
302.11	5.091
303.31	5.171
304.52	5.166
305.76	5.081
306.96	4.937
308.24	4.758
309.24	4.624
310.13	4.483
311.01	4.35
311.9	4.225
312.61	4.172
313.23	4.144
314.52	4.103
315.81	4.073
317.12	4.051
318.44	4.032
319.77	4.019
321.11	4.002
322.46	3.989
323.82	3.979
325.2	3.972
326.58	3.964
327.98	3.959
329.39	3.957
330.82	3.961
332.25	3.961
333.7	3.949
335.16	3.938
336.63	3.919
337.92	3.895
339	3.866
339.83	3.832
340.37	3.801
341.13	3.764
342.14	3.681
343.16	3.655
344.19	3.661
345.42	3.685
346.5	3.713
347.52	3.74
348.34	3.767
349.42	3.801
350.49	3.828
351.56	3.846
352.73	3.83
353.94	3.792
354.95	3.74
355.92	3.678
357.02	3.616
358.14	3.535
359.2	3.471
360.38	3.408
361.52	3.342
362.66	3.282
363.81	3.222
364.96	3.179
366.12	3.136
367.29	3.087
368.47	3.048
369.66	3.016
370.85	2.986
372.05	2.962
373.26	2.943
374.48	2.924
375.7	2.909
376.93	2.892
378.17	2.877
379.42	2.864
380.62	2.852
381.94	2.842
383.22	2.829
384.5	2.819
385.79	2.809
387.09	2.795
388.36	2.779
389.71	2.759
391.04	2.742
392.38	2.724
393.72	2.712
395.07	2.694
396.44	2.69
397.81	2.694
399.19	2.703
400.58	2.724
401.98	2.752
403.27	2.768
404.82	2.78
406.25	2.78
407.69	2.772
409.15	2.75
410.6	2.731
412.07	2.712
413.56	2.69
415.05	2.666
416.27	2.642
418.07	2.609
419.6	2.598
421.14	2.596
422.68	2.621
424.24	2.709
425.65	2.767
427.4	2.81
429	2.834
430.6	2.842
432.22	2.84
433.67	2.827
435.14	2.797
436.15	2.761
437.17	2.729
438.41	2.703
440.09	2.677
441.78	2.658
443.48	2.636
445.2	2.611
446.93	2.596
448.68	2.587
450.56	2.589
452.25	2.605
453.99	2.636
455.25	2.661
456.72	2.696
459.44	2.761
461.28	2.795
463.14	2.832
465.02	2.868
466.9	2.902
468.81	2.928
470.73	2.939
472.67	2.941
474.62	2.934
476.41	2.921
478.16	2.905
480.57	2.892
482.42	2.888
484.63	2.885
486.68	2.889
488.75	2.9
491.12	2.944
492.94	2.997
495.07	3.061
497.21	3.117
499.37	3.166
501.55	3.222
503.75	3.254
505.97	3.295
508.2	3.31
510.46	3.312
512.74	3.293
515.04	3.228
517.36	3.168
519.69	3.14
522.06	3.132
524.44	3.132
526.84	3.14
529.31	3.16
531.69	3.203
534.19	3.275
536.5	3.384
539.2	3.526
541.74	3.612
544.31	3.638
546.9	3.648
549.52	3.642
552.19	3.601
554.55	3.53
557.51	3.423
560.23	3.338
562.74	3.243
565.75	3.164
568.55	3.142
571.37	3.134
574.23	3.134
577.41	3.16
579.56	3.238
582.75	3.41
586.29	3.592
588.94	3.687
591.98	3.749
595.04	3.76
598.14	3.736
601.69	3.555
604.04	3.314
606.65	3.058
608.34	2.893
610.95	2.626
612.97	2.408
614.97	2.185
617.68	2.05
622.27	1.9
